* NGSPICE file created from SPM_example.ext - technology: sky130A

* Black-box entry subcircuit for sky130_fd_sc_hd__fill_1 abstract view
.subckt sky130_fd_sc_hd__fill_1 VGND VNB VPB VPWR
.ends

* Black-box entry subcircuit for sky130_fd_sc_hd__decap_6 abstract view
.subckt sky130_fd_sc_hd__decap_6 VGND VNB VPB VPWR
.ends

* Black-box entry subcircuit for sky130_fd_sc_hd__fill_2 abstract view
.subckt sky130_fd_sc_hd__fill_2 VGND VNB VPB VPWR
.ends

* Black-box entry subcircuit for sky130_ef_sc_hd__decap_12 abstract view
.subckt sky130_ef_sc_hd__decap_12 VGND VNB VPB VPWR
.ends

* Black-box entry subcircuit for sky130_fd_sc_hd__dfrtp_1 abstract view
.subckt sky130_fd_sc_hd__dfrtp_1 CLK D RESET_B VGND VNB VPB VPWR Q
.ends

* Black-box entry subcircuit for sky130_fd_sc_hd__decap_4 abstract view
.subckt sky130_fd_sc_hd__decap_4 VGND VNB VPB VPWR
.ends

* Black-box entry subcircuit for sky130_fd_sc_hd__decap_8 abstract view
.subckt sky130_fd_sc_hd__decap_8 VGND VNB VPB VPWR
.ends

* Black-box entry subcircuit for sky130_fd_sc_hd__tapvpwrvgnd_1 abstract view
.subckt sky130_fd_sc_hd__tapvpwrvgnd_1 VGND VPWR
.ends

* Black-box entry subcircuit for sky130_fd_sc_hd__and3_1 abstract view
.subckt sky130_fd_sc_hd__and3_1 A B C VGND VNB VPB VPWR X
.ends

* Black-box entry subcircuit for sky130_fd_sc_hd__mux2_1 abstract view
.subckt sky130_fd_sc_hd__mux2_1 A0 A1 S VGND VNB VPB VPWR X
.ends

* Black-box entry subcircuit for sky130_fd_sc_hd__inv_2 abstract view
.subckt sky130_fd_sc_hd__inv_2 A VGND VNB VPB VPWR Y
.ends

* Black-box entry subcircuit for sky130_fd_sc_hd__nor2_1 abstract view
.subckt sky130_fd_sc_hd__nor2_1 A B VGND VNB VPB VPWR Y
.ends

* Black-box entry subcircuit for sky130_fd_sc_hd__conb_1 abstract view
.subckt sky130_fd_sc_hd__conb_1 VGND VNB VPB VPWR HI LO
.ends

* Black-box entry subcircuit for sky130_fd_sc_hd__clkbuf_1 abstract view
.subckt sky130_fd_sc_hd__clkbuf_1 A VGND VNB VPB VPWR X
.ends

* Black-box entry subcircuit for sky130_fd_sc_hd__buf_4 abstract view
.subckt sky130_fd_sc_hd__buf_4 A VGND VNB VPB VPWR X
.ends

* Black-box entry subcircuit for sky130_fd_sc_hd__nand2_1 abstract view
.subckt sky130_fd_sc_hd__nand2_1 A B VGND VNB VPB VPWR Y
.ends

* Black-box entry subcircuit for sky130_fd_sc_hd__decap_3 abstract view
.subckt sky130_fd_sc_hd__decap_3 VGND VNB VPB VPWR
.ends

* Black-box entry subcircuit for sky130_fd_sc_hd__dfxtp_2 abstract view
.subckt sky130_fd_sc_hd__dfxtp_2 CLK D VGND VNB VPB VPWR Q
.ends

* Black-box entry subcircuit for sky130_fd_sc_hd__a221o_1 abstract view
.subckt sky130_fd_sc_hd__a221o_1 A1 A2 B1 B2 C1 VGND VNB VPB VPWR X
.ends

* Black-box entry subcircuit for sky130_fd_sc_hd__clkbuf_16 abstract view
.subckt sky130_fd_sc_hd__clkbuf_16 A VGND VNB VPB VPWR X
.ends

* Black-box entry subcircuit for sky130_fd_sc_hd__diode_2 abstract view
.subckt sky130_fd_sc_hd__diode_2 DIODE VGND VNB VPB VPWR
.ends

* Black-box entry subcircuit for sky130_fd_sc_hd__o21a_1 abstract view
.subckt sky130_fd_sc_hd__o21a_1 A1 A2 B1 VGND VNB VPB VPWR X
.ends

* Black-box entry subcircuit for sky130_fd_sc_hd__buf_2 abstract view
.subckt sky130_fd_sc_hd__buf_2 A VGND VNB VPB VPWR X
.ends

* Black-box entry subcircuit for sky130_fd_sc_hd__clkbuf_4 abstract view
.subckt sky130_fd_sc_hd__clkbuf_4 A VGND VNB VPB VPWR X
.ends

* Black-box entry subcircuit for sky130_fd_sc_hd__and2_1 abstract view
.subckt sky130_fd_sc_hd__and2_1 A B VGND VNB VPB VPWR X
.ends

* Black-box entry subcircuit for sky130_fd_sc_hd__a21o_1 abstract view
.subckt sky130_fd_sc_hd__a21o_1 A1 A2 B1 VGND VNB VPB VPWR X
.ends

* Black-box entry subcircuit for sky130_fd_sc_hd__a31o_1 abstract view
.subckt sky130_fd_sc_hd__a31o_1 A1 A2 A3 B1 VGND VNB VPB VPWR X
.ends

* Black-box entry subcircuit for sky130_fd_sc_hd__or4b_1 abstract view
.subckt sky130_fd_sc_hd__or4b_1 A B C D_N VGND VNB VPB VPWR X
.ends

* Black-box entry subcircuit for sky130_fd_sc_hd__dfxtp_1 abstract view
.subckt sky130_fd_sc_hd__dfxtp_1 CLK D VGND VNB VPB VPWR Q
.ends

* Black-box entry subcircuit for sky130_fd_sc_hd__xnor2_1 abstract view
.subckt sky130_fd_sc_hd__xnor2_1 A B VGND VNB VPB VPWR Y
.ends

* Black-box entry subcircuit for sky130_fd_sc_hd__nand3_1 abstract view
.subckt sky130_fd_sc_hd__nand3_1 A B C VGND VNB VPB VPWR Y
.ends

* Black-box entry subcircuit for sky130_fd_sc_hd__or4_1 abstract view
.subckt sky130_fd_sc_hd__or4_1 A B C D VGND VNB VPB VPWR X
.ends

* Black-box entry subcircuit for sky130_fd_sc_hd__dfxtp_4 abstract view
.subckt sky130_fd_sc_hd__dfxtp_4 CLK D VGND VNB VPB VPWR Q
.ends

* Black-box entry subcircuit for sky130_fd_sc_hd__a211o_1 abstract view
.subckt sky130_fd_sc_hd__a211o_1 A1 A2 B1 C1 VGND VNB VPB VPWR X
.ends

* Black-box entry subcircuit for sky130_fd_sc_hd__dfrtp_4 abstract view
.subckt sky130_fd_sc_hd__dfrtp_4 CLK D RESET_B VGND VNB VPB VPWR Q
.ends

* Black-box entry subcircuit for sky130_fd_sc_hd__nor4_2 abstract view
.subckt sky130_fd_sc_hd__nor4_2 A B C D VGND VNB VPB VPWR Y
.ends

* Black-box entry subcircuit for sky130_fd_sc_hd__or2_2 abstract view
.subckt sky130_fd_sc_hd__or2_2 A B VGND VNB VPB VPWR X
.ends

* Black-box entry subcircuit for sky130_fd_sc_hd__or4bb_1 abstract view
.subckt sky130_fd_sc_hd__or4bb_1 A B C_N D_N VGND VNB VPB VPWR X
.ends

* Black-box entry subcircuit for sky130_fd_sc_hd__or3_1 abstract view
.subckt sky130_fd_sc_hd__or3_1 A B C VGND VNB VPB VPWR X
.ends

* Black-box entry subcircuit for sky130_fd_sc_hd__a21oi_1 abstract view
.subckt sky130_fd_sc_hd__a21oi_1 A1 A2 B1 VGND VNB VPB VPWR Y
.ends

* Black-box entry subcircuit for sky130_fd_sc_hd__o21ai_1 abstract view
.subckt sky130_fd_sc_hd__o21ai_1 A1 A2 B1 VGND VNB VPB VPWR Y
.ends

* Black-box entry subcircuit for sky130_fd_sc_hd__nor3_1 abstract view
.subckt sky130_fd_sc_hd__nor3_1 A B C VGND VNB VPB VPWR Y
.ends

* Black-box entry subcircuit for sky130_fd_sc_hd__buf_6 abstract view
.subckt sky130_fd_sc_hd__buf_6 A VGND VNB VPB VPWR X
.ends

* Black-box entry subcircuit for sky130_fd_sc_hd__nor2_2 abstract view
.subckt sky130_fd_sc_hd__nor2_2 A B VGND VNB VPB VPWR Y
.ends

* Black-box entry subcircuit for sky130_fd_sc_hd__clkbuf_2 abstract view
.subckt sky130_fd_sc_hd__clkbuf_2 A VGND VNB VPB VPWR X
.ends

* Black-box entry subcircuit for sky130_fd_sc_hd__dlymetal6s2s_1 abstract view
.subckt sky130_fd_sc_hd__dlymetal6s2s_1 A VGND VNB VPB VPWR X
.ends

* Black-box entry subcircuit for sky130_fd_sc_hd__or2_1 abstract view
.subckt sky130_fd_sc_hd__or2_1 A B VGND VNB VPB VPWR X
.ends

* Black-box entry subcircuit for sky130_fd_sc_hd__or3_2 abstract view
.subckt sky130_fd_sc_hd__or3_2 A B C VGND VNB VPB VPWR X
.ends

* Black-box entry subcircuit for sky130_fd_sc_hd__o21ba_1 abstract view
.subckt sky130_fd_sc_hd__o21ba_1 A1 A2 B1_N VGND VNB VPB VPWR X
.ends

* Black-box entry subcircuit for sky130_fd_sc_hd__nand2_8 abstract view
.subckt sky130_fd_sc_hd__nand2_8 A B VGND VNB VPB VPWR Y
.ends

* Black-box entry subcircuit for sky130_fd_sc_hd__or4_4 abstract view
.subckt sky130_fd_sc_hd__or4_4 A B C D VGND VNB VPB VPWR X
.ends

* Black-box entry subcircuit for sky130_fd_sc_hd__o31a_2 abstract view
.subckt sky130_fd_sc_hd__o31a_2 A1 A2 A3 B1 VGND VNB VPB VPWR X
.ends

* Black-box entry subcircuit for sky130_fd_sc_hd__or2_4 abstract view
.subckt sky130_fd_sc_hd__or2_4 A B VGND VNB VPB VPWR X
.ends

* Black-box entry subcircuit for sky130_fd_sc_hd__or4_2 abstract view
.subckt sky130_fd_sc_hd__or4_2 A B C D VGND VNB VPB VPWR X
.ends

* Black-box entry subcircuit for sky130_fd_sc_hd__buf_8 abstract view
.subckt sky130_fd_sc_hd__buf_8 A VGND VNB VPB VPWR X
.ends

* Black-box entry subcircuit for sky130_fd_sc_hd__o31ai_4 abstract view
.subckt sky130_fd_sc_hd__o31ai_4 A1 A2 A3 B1 VGND VNB VPB VPWR Y
.ends

* Black-box entry subcircuit for sky130_fd_sc_hd__and3b_1 abstract view
.subckt sky130_fd_sc_hd__and3b_1 A_N B C VGND VNB VPB VPWR X
.ends

* Black-box entry subcircuit for sky130_fd_sc_hd__clkbuf_8 abstract view
.subckt sky130_fd_sc_hd__clkbuf_8 A VGND VNB VPB VPWR X
.ends

.subckt SPM_example VGND VPWR io_in[0] io_in[10] io_in[11] io_in[12] io_in[13] io_in[14]
+ io_in[15] io_in[16] io_in[17] io_in[18] io_in[19] io_in[1] io_in[20] io_in[21] io_in[22]
+ io_in[23] io_in[24] io_in[25] io_in[26] io_in[27] io_in[28] io_in[29] io_in[2] io_in[30]
+ io_in[31] io_in[32] io_in[33] io_in[34] io_in[35] io_in[36] io_in[37] io_in[3] io_in[4]
+ io_in[5] io_in[6] io_in[7] io_in[8] io_in[9] io_oeb[0] io_oeb[10] io_oeb[11] io_oeb[12]
+ io_oeb[13] io_oeb[14] io_oeb[15] io_oeb[16] io_oeb[17] io_oeb[18] io_oeb[19] io_oeb[1]
+ io_oeb[20] io_oeb[21] io_oeb[22] io_oeb[23] io_oeb[24] io_oeb[25] io_oeb[26] io_oeb[27]
+ io_oeb[28] io_oeb[29] io_oeb[2] io_oeb[30] io_oeb[31] io_oeb[32] io_oeb[33] io_oeb[34]
+ io_oeb[35] io_oeb[36] io_oeb[37] io_oeb[3] io_oeb[4] io_oeb[5] io_oeb[6] io_oeb[7]
+ io_oeb[8] io_oeb[9] io_out[0] io_out[10] io_out[11] io_out[12] io_out[13] io_out[14]
+ io_out[15] io_out[16] io_out[17] io_out[18] io_out[19] io_out[1] io_out[20] io_out[21]
+ io_out[22] io_out[23] io_out[24] io_out[25] io_out[26] io_out[27] io_out[28] io_out[29]
+ io_out[2] io_out[30] io_out[31] io_out[32] io_out[33] io_out[34] io_out[35] io_out[36]
+ io_out[37] io_out[3] io_out[4] io_out[5] io_out[6] io_out[7] io_out[8] io_out[9]
+ irq[0] irq[1] irq[2] la_data_in[0] la_data_in[100] la_data_in[101] la_data_in[102]
+ la_data_in[103] la_data_in[104] la_data_in[105] la_data_in[106] la_data_in[107]
+ la_data_in[108] la_data_in[109] la_data_in[10] la_data_in[110] la_data_in[111] la_data_in[112]
+ la_data_in[113] la_data_in[114] la_data_in[115] la_data_in[116] la_data_in[117]
+ la_data_in[118] la_data_in[119] la_data_in[11] la_data_in[120] la_data_in[121] la_data_in[122]
+ la_data_in[123] la_data_in[124] la_data_in[125] la_data_in[126] la_data_in[127]
+ la_data_in[12] la_data_in[13] la_data_in[14] la_data_in[15] la_data_in[16] la_data_in[17]
+ la_data_in[18] la_data_in[19] la_data_in[1] la_data_in[20] la_data_in[21] la_data_in[22]
+ la_data_in[23] la_data_in[24] la_data_in[25] la_data_in[26] la_data_in[27] la_data_in[28]
+ la_data_in[29] la_data_in[2] la_data_in[30] la_data_in[31] la_data_in[32] la_data_in[33]
+ la_data_in[34] la_data_in[35] la_data_in[36] la_data_in[37] la_data_in[38] la_data_in[39]
+ la_data_in[3] la_data_in[40] la_data_in[41] la_data_in[42] la_data_in[43] la_data_in[44]
+ la_data_in[45] la_data_in[46] la_data_in[47] la_data_in[48] la_data_in[49] la_data_in[4]
+ la_data_in[50] la_data_in[51] la_data_in[52] la_data_in[53] la_data_in[54] la_data_in[55]
+ la_data_in[56] la_data_in[57] la_data_in[58] la_data_in[59] la_data_in[5] la_data_in[60]
+ la_data_in[61] la_data_in[62] la_data_in[63] la_data_in[64] la_data_in[65] la_data_in[66]
+ la_data_in[67] la_data_in[68] la_data_in[69] la_data_in[6] la_data_in[70] la_data_in[71]
+ la_data_in[72] la_data_in[73] la_data_in[74] la_data_in[75] la_data_in[76] la_data_in[77]
+ la_data_in[78] la_data_in[79] la_data_in[7] la_data_in[80] la_data_in[81] la_data_in[82]
+ la_data_in[83] la_data_in[84] la_data_in[85] la_data_in[86] la_data_in[87] la_data_in[88]
+ la_data_in[89] la_data_in[8] la_data_in[90] la_data_in[91] la_data_in[92] la_data_in[93]
+ la_data_in[94] la_data_in[95] la_data_in[96] la_data_in[97] la_data_in[98] la_data_in[99]
+ la_data_in[9] la_data_out[0] la_data_out[100] la_data_out[101] la_data_out[102]
+ la_data_out[103] la_data_out[104] la_data_out[105] la_data_out[106] la_data_out[107]
+ la_data_out[108] la_data_out[109] la_data_out[10] la_data_out[110] la_data_out[111]
+ la_data_out[112] la_data_out[113] la_data_out[114] la_data_out[115] la_data_out[116]
+ la_data_out[117] la_data_out[118] la_data_out[119] la_data_out[11] la_data_out[120]
+ la_data_out[121] la_data_out[122] la_data_out[123] la_data_out[124] la_data_out[125]
+ la_data_out[126] la_data_out[127] la_data_out[12] la_data_out[13] la_data_out[14]
+ la_data_out[15] la_data_out[16] la_data_out[17] la_data_out[18] la_data_out[19]
+ la_data_out[1] la_data_out[20] la_data_out[21] la_data_out[22] la_data_out[23] la_data_out[24]
+ la_data_out[25] la_data_out[26] la_data_out[27] la_data_out[28] la_data_out[29]
+ la_data_out[2] la_data_out[30] la_data_out[31] la_data_out[32] la_data_out[33] la_data_out[34]
+ la_data_out[35] la_data_out[36] la_data_out[37] la_data_out[38] la_data_out[39]
+ la_data_out[3] la_data_out[40] la_data_out[41] la_data_out[42] la_data_out[43] la_data_out[44]
+ la_data_out[45] la_data_out[46] la_data_out[47] la_data_out[48] la_data_out[49]
+ la_data_out[4] la_data_out[50] la_data_out[51] la_data_out[52] la_data_out[53] la_data_out[54]
+ la_data_out[55] la_data_out[56] la_data_out[57] la_data_out[58] la_data_out[59]
+ la_data_out[5] la_data_out[60] la_data_out[61] la_data_out[62] la_data_out[63] la_data_out[64]
+ la_data_out[65] la_data_out[66] la_data_out[67] la_data_out[68] la_data_out[69]
+ la_data_out[6] la_data_out[70] la_data_out[71] la_data_out[72] la_data_out[73] la_data_out[74]
+ la_data_out[75] la_data_out[76] la_data_out[77] la_data_out[78] la_data_out[79]
+ la_data_out[7] la_data_out[80] la_data_out[81] la_data_out[82] la_data_out[83] la_data_out[84]
+ la_data_out[85] la_data_out[86] la_data_out[87] la_data_out[88] la_data_out[89]
+ la_data_out[8] la_data_out[90] la_data_out[91] la_data_out[92] la_data_out[93] la_data_out[94]
+ la_data_out[95] la_data_out[96] la_data_out[97] la_data_out[98] la_data_out[99]
+ la_data_out[9] la_oenb[0] la_oenb[100] la_oenb[101] la_oenb[102] la_oenb[103] la_oenb[104]
+ la_oenb[105] la_oenb[106] la_oenb[107] la_oenb[108] la_oenb[109] la_oenb[10] la_oenb[110]
+ la_oenb[111] la_oenb[112] la_oenb[113] la_oenb[114] la_oenb[115] la_oenb[116] la_oenb[117]
+ la_oenb[118] la_oenb[119] la_oenb[11] la_oenb[120] la_oenb[121] la_oenb[122] la_oenb[123]
+ la_oenb[124] la_oenb[125] la_oenb[126] la_oenb[127] la_oenb[12] la_oenb[13] la_oenb[14]
+ la_oenb[15] la_oenb[16] la_oenb[17] la_oenb[18] la_oenb[19] la_oenb[1] la_oenb[20]
+ la_oenb[21] la_oenb[22] la_oenb[23] la_oenb[24] la_oenb[25] la_oenb[26] la_oenb[27]
+ la_oenb[28] la_oenb[29] la_oenb[2] la_oenb[30] la_oenb[31] la_oenb[32] la_oenb[33]
+ la_oenb[34] la_oenb[35] la_oenb[36] la_oenb[37] la_oenb[38] la_oenb[39] la_oenb[3]
+ la_oenb[40] la_oenb[41] la_oenb[42] la_oenb[43] la_oenb[44] la_oenb[45] la_oenb[46]
+ la_oenb[47] la_oenb[48] la_oenb[49] la_oenb[4] la_oenb[50] la_oenb[51] la_oenb[52]
+ la_oenb[53] la_oenb[54] la_oenb[55] la_oenb[56] la_oenb[57] la_oenb[58] la_oenb[59]
+ la_oenb[5] la_oenb[60] la_oenb[61] la_oenb[62] la_oenb[63] la_oenb[64] la_oenb[65]
+ la_oenb[66] la_oenb[67] la_oenb[68] la_oenb[69] la_oenb[6] la_oenb[70] la_oenb[71]
+ la_oenb[72] la_oenb[73] la_oenb[74] la_oenb[75] la_oenb[76] la_oenb[77] la_oenb[78]
+ la_oenb[79] la_oenb[7] la_oenb[80] la_oenb[81] la_oenb[82] la_oenb[83] la_oenb[84]
+ la_oenb[85] la_oenb[86] la_oenb[87] la_oenb[88] la_oenb[89] la_oenb[8] la_oenb[90]
+ la_oenb[91] la_oenb[92] la_oenb[93] la_oenb[94] la_oenb[95] la_oenb[96] la_oenb[97]
+ la_oenb[98] la_oenb[99] la_oenb[9] vccd1 vssd1 wb_clk_i wb_rst_i wbs_ack_o wbs_adr_i[0]
+ wbs_adr_i[10] wbs_adr_i[11] wbs_adr_i[12] wbs_adr_i[13] wbs_adr_i[14] wbs_adr_i[15]
+ wbs_adr_i[16] wbs_adr_i[17] wbs_adr_i[18] wbs_adr_i[19] wbs_adr_i[1] wbs_adr_i[20]
+ wbs_adr_i[21] wbs_adr_i[22] wbs_adr_i[23] wbs_adr_i[24] wbs_adr_i[25] wbs_adr_i[26]
+ wbs_adr_i[27] wbs_adr_i[28] wbs_adr_i[29] wbs_adr_i[2] wbs_adr_i[30] wbs_adr_i[31]
+ wbs_adr_i[3] wbs_adr_i[4] wbs_adr_i[5] wbs_adr_i[6] wbs_adr_i[7] wbs_adr_i[8] wbs_adr_i[9]
+ wbs_cyc_i wbs_dat_i[0] wbs_dat_i[10] wbs_dat_i[11] wbs_dat_i[12] wbs_dat_i[13] wbs_dat_i[14]
+ wbs_dat_i[15] wbs_dat_i[16] wbs_dat_i[17] wbs_dat_i[18] wbs_dat_i[19] wbs_dat_i[1]
+ wbs_dat_i[20] wbs_dat_i[21] wbs_dat_i[22] wbs_dat_i[23] wbs_dat_i[24] wbs_dat_i[25]
+ wbs_dat_i[26] wbs_dat_i[27] wbs_dat_i[28] wbs_dat_i[29] wbs_dat_i[2] wbs_dat_i[30]
+ wbs_dat_i[31] wbs_dat_i[3] wbs_dat_i[4] wbs_dat_i[5] wbs_dat_i[6] wbs_dat_i[7] wbs_dat_i[8]
+ wbs_dat_i[9] wbs_dat_o[0] wbs_dat_o[10] wbs_dat_o[11] wbs_dat_o[12] wbs_dat_o[13]
+ wbs_dat_o[14] wbs_dat_o[15] wbs_dat_o[16] wbs_dat_o[17] wbs_dat_o[18] wbs_dat_o[19]
+ wbs_dat_o[1] wbs_dat_o[20] wbs_dat_o[21] wbs_dat_o[22] wbs_dat_o[23] wbs_dat_o[24]
+ wbs_dat_o[25] wbs_dat_o[26] wbs_dat_o[27] wbs_dat_o[28] wbs_dat_o[29] wbs_dat_o[2]
+ wbs_dat_o[30] wbs_dat_o[31] wbs_dat_o[3] wbs_dat_o[4] wbs_dat_o[5] wbs_dat_o[6]
+ wbs_dat_o[7] wbs_dat_o[8] wbs_dat_o[9] wbs_sel_i[0] wbs_sel_i[1] wbs_sel_i[2] wbs_sel_i[3]
+ wbs_stb_i wbs_we_i
XFILLER_79_391 VGND VGND VPWR VPWR sky130_fd_sc_hd__fill_1
XFILLER_67_553 VGND VGND VPWR VPWR sky130_fd_sc_hd__decap_6
XFILLER_55_715 VGND VGND VPWR VPWR sky130_fd_sc_hd__fill_2
XFILLER_82_501 VGND VGND VPWR VPWR sky130_ef_sc_hd__decap_12
XFILLER_27_417 VGND VGND VPWR VPWR sky130_ef_sc_hd__decap_12
XFILLER_55_726 VGND VGND VPWR VPWR sky130_fd_sc_hd__fill_2
XFILLER_67_597 VGND VGND VPWR VPWR sky130_ef_sc_hd__decap_12
X_2106_ clknet_leaf_11_wb_clk_i _0393_ _0206_ VGND VGND VPWR VPWR Y\[30\] sky130_fd_sc_hd__dfrtp_1
XFILLER_82_545 VGND VGND VPWR VPWR sky130_ef_sc_hd__decap_12
XFILLER_208_581 VGND VGND VPWR VPWR sky130_fd_sc_hd__decap_6
XFILLER_39_1101 VGND VGND VPWR VPWR sky130_ef_sc_hd__decap_12
X_2037_ clknet_leaf_5_wb_clk_i _0324_ _0170_ VGND VGND VPWR VPWR P0\[58\] sky130_fd_sc_hd__dfrtp_1
XFILLER_36_973 VGND VGND VPWR VPWR sky130_fd_sc_hd__decap_6
XFILLER_78_1161 VGND VGND VPWR VPWR sky130_ef_sc_hd__decap_12
XFILLER_35_461 VGND VGND VPWR VPWR sky130_ef_sc_hd__decap_12
XFILLER_82_589 VGND VGND VPWR VPWR sky130_ef_sc_hd__decap_12
XFILLER_39_1145 VGND VGND VPWR VPWR sky130_ef_sc_hd__decap_12
XFILLER_211_713 VGND VGND VPWR VPWR sky130_fd_sc_hd__decap_4
XFILLER_165_1175 VGND VGND VPWR VPWR sky130_fd_sc_hd__fill_1
XFILLER_35_1009 VGND VGND VPWR VPWR sky130_ef_sc_hd__decap_12
XFILLER_52_29 VGND VGND VPWR VPWR sky130_ef_sc_hd__decap_12
XFILLER_196_937 VGND VGND VPWR VPWR sky130_ef_sc_hd__decap_12
XFILLER_22_133 VGND VGND VPWR VPWR sky130_fd_sc_hd__decap_6
XFILLER_39_1189 VGND VGND VPWR VPWR sky130_ef_sc_hd__decap_12
XFILLER_167_105 VGND VGND VPWR VPWR sky130_fd_sc_hd__decap_6
XFILLER_211_757 VGND VGND VPWR VPWR sky130_ef_sc_hd__decap_12
XFILLER_210_223 VGND VGND VPWR VPWR sky130_fd_sc_hd__decap_4
XFILLER_168_29 VGND VGND VPWR VPWR sky130_ef_sc_hd__decap_12
XFILLER_50_475 VGND VGND VPWR VPWR sky130_fd_sc_hd__fill_1
XFILLER_51_998 VGND VGND VPWR VPWR sky130_fd_sc_hd__decap_8
XFILLER_195_447 VGND VGND VPWR VPWR sky130_fd_sc_hd__fill_1
XFILLER_206_1161 VGND VGND VPWR VPWR sky130_ef_sc_hd__decap_12
XFILLER_167_149 VGND VGND VPWR VPWR sky130_ef_sc_hd__decap_12
XFILLER_22_177 VGND VGND VPWR VPWR sky130_ef_sc_hd__decap_12
XFILLER_183_609 VGND VGND VPWR VPWR sky130_fd_sc_hd__decap_6
XFILLER_149_853 VGND VGND VPWR VPWR sky130_ef_sc_hd__decap_12
XFILLER_148_363 VGND VGND VPWR VPWR sky130_fd_sc_hd__fill_1
XFILLER_149_897 VGND VGND VPWR VPWR sky130_ef_sc_hd__decap_12
XFILLER_136_525 VGND VGND VPWR VPWR sky130_fd_sc_hd__decap_6
XFILLER_175_193 VGND VGND VPWR VPWR sky130_ef_sc_hd__decap_12
XFILLER_191_653 VGND VGND VPWR VPWR sky130_ef_sc_hd__decap_12
XFILLER_164_867 VGND VGND VPWR VPWR sky130_fd_sc_hd__fill_1
XFILLER_50_1091 VGND VGND VPWR VPWR sky130_fd_sc_hd__fill_1
XFILLER_136_569 VGND VGND VPWR VPWR sky130_ef_sc_hd__decap_12
XFILLER_190_141 VGND VGND VPWR VPWR sky130_ef_sc_hd__decap_12
XFILLER_151_517 VGND VGND VPWR VPWR sky130_ef_sc_hd__decap_12
XFILLER_85_1121 VGND VGND VPWR VPWR sky130_ef_sc_hd__decap_12
XFILLER_191_697 VGND VGND VPWR VPWR sky130_ef_sc_hd__decap_12
XFILLER_117_783 VGND VGND VPWR VPWR sky130_fd_sc_hd__fill_1
XFILLER_46_1105 VGND VGND VPWR VPWR sky130_ef_sc_hd__decap_12
XFILLER_89_111 VGND VGND VPWR VPWR sky130_fd_sc_hd__fill_1
XFILLER_105_945 VGND VGND VPWR VPWR sky130_fd_sc_hd__decap_6
XFILLER_104_433 VGND VGND VPWR VPWR sky130_ef_sc_hd__decap_12
XFILLER_117_55 VGND VGND VPWR VPWR sky130_fd_sc_hd__fill_1
XFILLER_137_1233 VGND VGND VPWR VPWR sky130_ef_sc_hd__decap_12
XFILLER_46_1149 VGND VGND VPWR VPWR sky130_ef_sc_hd__decap_12
XFILLER_105_989 VGND VGND VPWR VPWR sky130_ef_sc_hd__decap_12
XFILLER_77_317 VGND VGND VPWR VPWR sky130_ef_sc_hd__decap_12
XFILLER_104_477 VGND VGND VPWR VPWR sky130_ef_sc_hd__decap_12
XFILLER_120_937 VGND VGND VPWR VPWR sky130_ef_sc_hd__decap_12
XFILLER_133_1119 VGND VGND VPWR VPWR sky130_fd_sc_hd__fill_1
XFILLER_58_531 VGND VGND VPWR VPWR sky130_fd_sc_hd__fill_1
XFILLER_92_309 VGND VGND VPWR VPWR sky130_ef_sc_hd__decap_12
XTAP_3202 VGND VPWR sky130_fd_sc_hd__tapvpwrvgnd_1
XFILLER_85_361 VGND VGND VPWR VPWR sky130_ef_sc_hd__decap_12
XTAP_3213 VGND VPWR sky130_fd_sc_hd__tapvpwrvgnd_1
XFILLER_46_737 VGND VGND VPWR VPWR sky130_ef_sc_hd__decap_12
XTAP_3224 VGND VPWR sky130_fd_sc_hd__tapvpwrvgnd_1
XTAP_3235 VGND VPWR sky130_fd_sc_hd__tapvpwrvgnd_1
XFILLER_45_225 VGND VGND VPWR VPWR sky130_ef_sc_hd__decap_12
XTAP_2501 VGND VPWR sky130_fd_sc_hd__tapvpwrvgnd_1
XFILLER_172_3 VGND VGND VPWR VPWR sky130_fd_sc_hd__fill_2
XTAP_3246 VGND VPWR sky130_fd_sc_hd__tapvpwrvgnd_1
XTAP_2512 VGND VPWR sky130_fd_sc_hd__tapvpwrvgnd_1
XTAP_3257 VGND VPWR sky130_fd_sc_hd__tapvpwrvgnd_1
XFILLER_27_951 VGND VGND VPWR VPWR sky130_fd_sc_hd__fill_1
XFILLER_93_69 VGND VGND VPWR VPWR sky130_ef_sc_hd__decap_12
XTAP_2523 VGND VPWR sky130_fd_sc_hd__tapvpwrvgnd_1
XTAP_3268 VGND VPWR sky130_fd_sc_hd__tapvpwrvgnd_1
XTAP_2534 VGND VPWR sky130_fd_sc_hd__tapvpwrvgnd_1
XTAP_3279 VGND VPWR sky130_fd_sc_hd__tapvpwrvgnd_1
XFILLER_26_41 VGND VGND VPWR VPWR sky130_ef_sc_hd__decap_12
XFILLER_57_1201 VGND VGND VPWR VPWR sky130_ef_sc_hd__decap_12
XTAP_1800 VGND VPWR sky130_fd_sc_hd__tapvpwrvgnd_1
XTAP_2545 VGND VPWR sky130_fd_sc_hd__tapvpwrvgnd_1
XTAP_1811 VGND VPWR sky130_fd_sc_hd__tapvpwrvgnd_1
XFILLER_61_729 VGND VGND VPWR VPWR sky130_fd_sc_hd__fill_2
XTAP_2556 VGND VPWR sky130_fd_sc_hd__tapvpwrvgnd_1
XFILLER_96_1261 VGND VGND VPWR VPWR sky130_fd_sc_hd__decap_8
XFILLER_14_601 VGND VGND VPWR VPWR sky130_ef_sc_hd__decap_12
XFILLER_54_770 VGND VGND VPWR VPWR sky130_fd_sc_hd__decap_4
XTAP_1822 VGND VPWR sky130_fd_sc_hd__tapvpwrvgnd_1
XFILLER_183_1231 VGND VGND VPWR VPWR sky130_fd_sc_hd__fill_1
XTAP_2567 VGND VPWR sky130_fd_sc_hd__tapvpwrvgnd_1
XFILLER_199_753 VGND VGND VPWR VPWR sky130_ef_sc_hd__decap_12
XFILLER_57_1245 VGND VGND VPWR VPWR sky130_ef_sc_hd__decap_12
XTAP_1833 VGND VPWR sky130_fd_sc_hd__tapvpwrvgnd_1
XTAP_2578 VGND VPWR sky130_fd_sc_hd__tapvpwrvgnd_1
XFILLER_26_85 VGND VGND VPWR VPWR sky130_ef_sc_hd__decap_12
XTAP_1844 VGND VPWR sky130_fd_sc_hd__tapvpwrvgnd_1
XTAP_2589 VGND VPWR sky130_fd_sc_hd__tapvpwrvgnd_1
XFILLER_202_713 VGND VGND VPWR VPWR sky130_ef_sc_hd__decap_12
XFILLER_14_645 VGND VGND VPWR VPWR sky130_ef_sc_hd__decap_12
XFILLER_13_111 VGND VGND VPWR VPWR sky130_fd_sc_hd__fill_1
XTAP_1855 VGND VPWR sky130_fd_sc_hd__tapvpwrvgnd_1
XFILLER_159_617 VGND VGND VPWR VPWR sky130_ef_sc_hd__decap_12
XTAP_1866 VGND VPWR sky130_fd_sc_hd__tapvpwrvgnd_1
XFILLER_92_1147 VGND VGND VPWR VPWR sky130_fd_sc_hd__fill_1
XFILLER_18_1229 VGND VGND VPWR VPWR sky130_ef_sc_hd__decap_12
XFILLER_199_797 VGND VGND VPWR VPWR sky130_ef_sc_hd__decap_12
XTAP_1877 VGND VPWR sky130_fd_sc_hd__tapvpwrvgnd_1
XFILLER_201_223 VGND VGND VPWR VPWR sky130_fd_sc_hd__fill_1
XTAP_1888 VGND VPWR sky130_fd_sc_hd__tapvpwrvgnd_1
XFILLER_202_757 VGND VGND VPWR VPWR sky130_ef_sc_hd__decap_12
XTAP_1899 VGND VPWR sky130_fd_sc_hd__tapvpwrvgnd_1
XFILLER_144_1259 VGND VGND VPWR VPWR sky130_fd_sc_hd__fill_1
XFILLER_9_137 VGND VGND VPWR VPWR sky130_ef_sc_hd__decap_12
XFILLER_41_497 VGND VGND VPWR VPWR sky130_fd_sc_hd__decap_6
XFILLER_186_469 VGND VGND VPWR VPWR sky130_fd_sc_hd__decap_6
XFILLER_127_503 VGND VGND VPWR VPWR sky130_fd_sc_hd__fill_1
XFILLER_6_811 VGND VGND VPWR VPWR sky130_fd_sc_hd__fill_1
XFILLER_139_385 VGND VGND VPWR VPWR sky130_fd_sc_hd__decap_6
XFILLER_154_333 VGND VGND VPWR VPWR sky130_ef_sc_hd__decap_12
XFILLER_115_709 VGND VGND VPWR VPWR sky130_ef_sc_hd__decap_12
XFILLER_155_889 VGND VGND VPWR VPWR sky130_fd_sc_hd__decap_6
XFILLER_177_1057 VGND VGND VPWR VPWR sky130_fd_sc_hd__decap_6
XFILLER_154_377 VGND VGND VPWR VPWR sky130_ef_sc_hd__decap_12
XFILLER_170_837 VGND VGND VPWR VPWR sky130_ef_sc_hd__decap_12
XFILLER_47_8 VGND VGND VPWR VPWR sky130_ef_sc_hd__decap_12
XFILLER_64_1205 VGND VGND VPWR VPWR sky130_ef_sc_hd__decap_12
XFILLER_107_293 VGND VGND VPWR VPWR sky130_ef_sc_hd__decap_12
XFILLER_123_753 VGND VGND VPWR VPWR sky130_ef_sc_hd__decap_12
XFILLER_174_83 VGND VGND VPWR VPWR sky130_fd_sc_hd__fill_1
XFILLER_123_797 VGND VGND VPWR VPWR sky130_ef_sc_hd__decap_12
XFILLER_96_637 VGND VGND VPWR VPWR sky130_fd_sc_hd__decap_6
XFILLER_7_1121 VGND VGND VPWR VPWR sky130_ef_sc_hd__decap_12
X_1270_ CNT\[1\] CNT\[0\] CNT\[2\] VGND VGND VPWR VPWR _0438_ sky130_fd_sc_hd__and3_1
XFILLER_95_125 VGND VGND VPWR VPWR sky130_ef_sc_hd__decap_12
XFILLER_49_553 VGND VGND VPWR VPWR sky130_fd_sc_hd__decap_6
XTAP_5160 VGND VPWR sky130_fd_sc_hd__tapvpwrvgnd_1
XFILLER_67_81 VGND VGND VPWR VPWR sky130_ef_sc_hd__decap_12
XFILLER_95_169 VGND VGND VPWR VPWR sky130_ef_sc_hd__decap_12
XFILLER_110_469 VGND VGND VPWR VPWR sky130_fd_sc_hd__decap_6
XTAP_5171 VGND VPWR sky130_fd_sc_hd__tapvpwrvgnd_1
XFILLER_3_1007 VGND VGND VPWR VPWR sky130_fd_sc_hd__fill_1
XTAP_5182 VGND VPWR sky130_fd_sc_hd__tapvpwrvgnd_1
XFILLER_64_501 VGND VGND VPWR VPWR sky130_ef_sc_hd__decap_12
XTAP_5193 VGND VPWR sky130_fd_sc_hd__tapvpwrvgnd_1
XFILLER_49_597 VGND VGND VPWR VPWR sky130_ef_sc_hd__decap_12
XFILLER_114_1085 VGND VGND VPWR VPWR sky130_fd_sc_hd__decap_6
XTAP_4470 VGND VPWR sky130_fd_sc_hd__tapvpwrvgnd_1
XFILLER_92_843 VGND VGND VPWR VPWR sky130_fd_sc_hd__fill_1
XTAP_4481 VGND VPWR sky130_fd_sc_hd__tapvpwrvgnd_1
XFILLER_64_545 VGND VGND VPWR VPWR sky130_ef_sc_hd__decap_12
XTAP_4492 VGND VPWR sky130_fd_sc_hd__tapvpwrvgnd_1
XFILLER_184_1017 VGND VGND VPWR VPWR sky130_ef_sc_hd__decap_12
XFILLER_18_973 VGND VGND VPWR VPWR sky130_fd_sc_hd__decap_6
XFILLER_92_887 VGND VGND VPWR VPWR sky130_fd_sc_hd__decap_8
XFILLER_188_1197 VGND VGND VPWR VPWR sky130_fd_sc_hd__decap_6
XTAP_3780 VGND VPWR sky130_fd_sc_hd__tapvpwrvgnd_1
XFILLER_64_589 VGND VGND VPWR VPWR sky130_ef_sc_hd__decap_12
XFILLER_17_461 VGND VGND VPWR VPWR sky130_ef_sc_hd__decap_12
XTAP_3791 VGND VPWR sky130_fd_sc_hd__tapvpwrvgnd_1
XFILLER_33_921 VGND VGND VPWR VPWR sky130_ef_sc_hd__decap_12
XFILLER_51_217 VGND VGND VPWR VPWR sky130_fd_sc_hd__decap_6
XFILLER_205_573 VGND VGND VPWR VPWR sky130_ef_sc_hd__decap_12
XFILLER_33_965 VGND VGND VPWR VPWR sky130_ef_sc_hd__decap_12
XFILLER_178_937 VGND VGND VPWR VPWR sky130_ef_sc_hd__decap_12
XFILLER_149_105 VGND VGND VPWR VPWR sky130_fd_sc_hd__decap_6
XFILLER_32_475 VGND VGND VPWR VPWR sky130_fd_sc_hd__fill_1
XFILLER_177_447 VGND VGND VPWR VPWR sky130_fd_sc_hd__fill_1
XFILLER_60_795 VGND VGND VPWR VPWR sky130_fd_sc_hd__decap_8
XFILLER_149_149 VGND VGND VPWR VPWR sky130_ef_sc_hd__decap_12
XFILLER_20_637 VGND VGND VPWR VPWR sky130_fd_sc_hd__decap_6
XFILLER_165_609 VGND VGND VPWR VPWR sky130_fd_sc_hd__decap_6
XFILLER_121_1001 VGND VGND VPWR VPWR sky130_fd_sc_hd__decap_6
XFILLER_186_981 VGND VGND VPWR VPWR sky130_ef_sc_hd__decap_12
XFILLER_160_1061 VGND VGND VPWR VPWR sky130_ef_sc_hd__decap_12
X_0985_ net49 Y\[22\] _0799_ VGND VGND VPWR VPWR _0810_ sky130_fd_sc_hd__mux2_1
XFILLER_9_671 VGND VGND VPWR VPWR sky130_fd_sc_hd__fill_1
XFILLER_118_525 VGND VGND VPWR VPWR sky130_fd_sc_hd__decap_6
XFILLER_121_1045 VGND VGND VPWR VPWR sky130_ef_sc_hd__decap_12
XFILLER_195_1113 VGND VGND VPWR VPWR sky130_fd_sc_hd__decap_6
XFILLER_157_193 VGND VGND VPWR VPWR sky130_ef_sc_hd__decap_12
XFILLER_146_867 VGND VGND VPWR VPWR sky130_fd_sc_hd__fill_1
XFILLER_173_653 VGND VGND VPWR VPWR sky130_ef_sc_hd__decap_12
XFILLER_118_569 VGND VGND VPWR VPWR sky130_ef_sc_hd__decap_12
XFILLER_172_141 VGND VGND VPWR VPWR sky130_ef_sc_hd__decap_12
XFILLER_121_1089 VGND VGND VPWR VPWR sky130_ef_sc_hd__decap_12
XFILLER_195_1157 VGND VGND VPWR VPWR sky130_ef_sc_hd__decap_12
XFILLER_133_517 VGND VGND VPWR VPWR sky130_ef_sc_hd__decap_12
XFILLER_173_697 VGND VGND VPWR VPWR sky130_ef_sc_hd__decap_12
X_1606_ _0594_ VGND VGND VPWR VPWR _0142_ sky130_fd_sc_hd__inv_2
X_1537_ _0587_ VGND VGND VPWR VPWR _0080_ sky130_fd_sc_hd__inv_2
XFILLER_87_615 VGND VGND VPWR VPWR sky130_fd_sc_hd__fill_1
XFILLER_141_561 VGND VGND VPWR VPWR sky130_ef_sc_hd__decap_12
XFILLER_59_317 VGND VGND VPWR VPWR sky130_ef_sc_hd__decap_12
XFILLER_102_937 VGND VGND VPWR VPWR sky130_ef_sc_hd__decap_12
XFILLER_99_497 VGND VGND VPWR VPWR sky130_fd_sc_hd__decap_6
XFILLER_68_840 VGND VGND VPWR VPWR sky130_fd_sc_hd__fill_2
X_1468_ _0570_ _0571_ VGND VGND VPWR VPWR _0572_ sky130_fd_sc_hd__nor2_1
XFILLER_101_447 VGND VGND VPWR VPWR sky130_fd_sc_hd__fill_1
XFILLER_74_309 VGND VGND VPWR VPWR sky130_ef_sc_hd__decap_12
XFILLER_80_1073 VGND VGND VPWR VPWR sky130_ef_sc_hd__decap_12
XFILLER_132_1141 VGND VGND VPWR VPWR sky130_fd_sc_hd__decap_6
XFILLER_68_873 VGND VGND VPWR VPWR sky130_fd_sc_hd__fill_1
XSPM_example_260 VGND VGND VPWR VPWR SPM_example_260/HI la_data_out[74] sky130_fd_sc_hd__conb_1
XFILLER_67_361 VGND VGND VPWR VPWR sky130_ef_sc_hd__decap_12
X_1399_ spm.csa0.sc spm.csa0.y VGND VGND VPWR VPWR _0525_ sky130_fd_sc_hd__nor2_1
XSPM_example_271 VGND VGND VPWR VPWR SPM_example_271/HI la_data_out[85] sky130_fd_sc_hd__conb_1
XFILLER_110_981 VGND VGND VPWR VPWR sky130_ef_sc_hd__decap_12
XFILLER_28_737 VGND VGND VPWR VPWR sky130_ef_sc_hd__decap_12
XFILLER_41_1057 VGND VGND VPWR VPWR sky130_fd_sc_hd__decap_6
XSPM_example_282 VGND VGND VPWR VPWR SPM_example_282/HI la_data_out[96] sky130_fd_sc_hd__conb_1
XFILLER_132_1185 VGND VGND VPWR VPWR sky130_ef_sc_hd__decap_12
XFILLER_27_225 VGND VGND VPWR VPWR sky130_ef_sc_hd__decap_12
XSPM_example_293 VGND VGND VPWR VPWR SPM_example_293/HI la_data_out[107] sky130_fd_sc_hd__conb_1
XFILLER_103_57 VGND VGND VPWR VPWR sky130_ef_sc_hd__decap_12
XTAP_1107 VGND VPWR sky130_fd_sc_hd__tapvpwrvgnd_1
XFILLER_43_729 VGND VGND VPWR VPWR sky130_ef_sc_hd__decap_12
XTAP_1118 VGND VPWR sky130_fd_sc_hd__tapvpwrvgnd_1
XFILLER_36_781 VGND VGND VPWR VPWR sky130_ef_sc_hd__decap_12
XTAP_1129 VGND VPWR sky130_fd_sc_hd__tapvpwrvgnd_1
XFILLER_63_39 VGND VGND VPWR VPWR sky130_ef_sc_hd__decap_12